/*--------------------------------*- C++ -*----------------------------------*\
| =========                 |                                                 |
| \\      /  F ield         | OpenFOAM: The Open Source CFD Toolbox           |
|  \\    /   O peration     | Version:  1.6                                   |
|   \\  /    A nd           | Web:      www.OpenFOAM.org                      |
|    \\/     M anipulation  |                                                 |
\*---------------------------------------------------------------------------*/
FoamFile
{
    version     2.0;
    format      ascii;
    class       dictionary;
    location    "constant";
    object      Tables;
}
// * * * * * * * * * * * * * * * * * * * * * * * * * * * * * * * * * * * * * //

T
501
(
2.930000000000E+02
3.239273385398E+02
3.442713351472E+02
3.618330249036E+02
3.777915147183E+02
3.925469875545E+02
4.065875221502E+02
4.198143038166E+02
4.324885784084E+02
4.446869118572E+02
4.564805485511E+02
4.679357337278E+02
4.790289013939E+02
4.898156641866E+02
5.004011369586E+02
5.107295557508E+02
5.208674378765E+02
5.307720215926E+02
5.404826033129E+02
5.500112671431E+02
5.593695946286E+02
5.685686879177E+02
5.776191926789E+02
5.865313205066E+02
5.953148709453E+02
6.039792529540E+02
6.125335057388E+02
6.209593025606E+02
6.292684888197E+02
6.374876200925E+02
6.456246366012E+02
6.536285236166E+02
6.615561625967E+02
6.694193837013E+02
6.771562157846E+02
6.848326398100E+02
6.924400512393E+02
6.999415274911E+02
7.074038978014E+02
7.147598340807E+02
7.220671372170E+02
7.293009453988E+02
7.364637561464E+02
7.435777430715E+02
7.506062293235E+02
7.576026324955E+02
7.645065767947E+02
7.713875681621E+02
7.781763869551E+02
7.849440762047E+02
7.916268371331E+02
7.982832745448E+02
8.048687120173E+02
8.114158907047E+02
8.179124202344E+02
8.243522778542E+02
8.307680096297E+02
8.371024295597E+02
8.434368494896E+02
8.496759937238E+02
8.559068057317E+02
8.620822862375E+02
8.682112667522E+02
8.743303047358E+02
8.803591767814E+02
8.863880488269E+02
8.923591756551E+02
8.982896085753E+02
9.042196133741E+02
9.100532224415E+02
9.158868315088E+02
9.216869113103E+02
9.274252573299E+02
9.331636033494E+02
9.388150215761E+02
9.444150513378E+02
9.500150810995E+02
9.556151108612E+02
9.612151406229E+02
9.668151703846E+02
9.722428303521E+02
9.776647342962E+02
9.830866382403E+02
9.885085421845E+02
9.939304461286E+02
9.993497365561E+02
1.004639819631E+03
1.009929902706E+03
1.015219985782E+03
1.020428734765E+03
1.025631902209E+03
1.030835069654E+03
1.035971197555E+03
1.041088080556E+03
1.046204963556E+03
1.051275288301E+03
1.056306413111E+03
1.061337537921E+03
1.066348760719E+03
1.071294549448E+03
1.076240338178E+03
1.081186126907E+03
1.086059855126E+03
1.090920627094E+03
1.095781399062E+03
1.100609452868E+03
1.105385426603E+03
1.110161400339E+03
1.114937374075E+03
1.119641558119E+03
1.124332853926E+03
1.129024149734E+03
1.133695680432E+03
1.138302323616E+03
1.142908966799E+03
1.147515609982E+03
1.152076248909E+03
1.156598173473E+03
1.161120098037E+03
1.165642022601E+03
1.170098028786E+03
1.174535081682E+03
1.178972134577E+03
1.183409187473E+03
1.187766674622E+03
1.192118620313E+03
1.196470566004E+03
1.200820953348E+03
1.205087478738E+03
1.209354004127E+03
1.213620529517E+03
1.217884691632E+03
1.222065411187E+03
1.226246130742E+03
1.230426850296E+03
1.234607569851E+03
1.238705154385E+03
1.242799615394E+03
1.246894076404E+03
1.250988537414E+03
1.255011131865E+03
1.259018819839E+03
1.263026507812E+03
1.267034195786E+03
1.270987530949E+03
1.274907875149E+03
1.278828219348E+03
1.282748563547E+03
1.286638319165E+03
1.290470698299E+03
1.294303077433E+03
1.298135456566E+03
1.301967254388E+03
1.305711002753E+03
1.309454751118E+03
1.313198499483E+03
1.316942247849E+03
1.320632303341E+03
1.324286717437E+03
1.327941131533E+03
1.331595545629E+03
1.335237915378E+03
1.338802261530E+03
1.342366607681E+03
1.345930953833E+03
1.349495299985E+03
1.353004471741E+03
1.356477994900E+03
1.359951518058E+03
1.363425041217E+03
1.366896229467E+03
1.370278163752E+03
1.373660098038E+03
1.377042032324E+03
1.380423966609E+03
1.383769775141E+03
1.387059356564E+03
1.390348937987E+03
1.393638519410E+03
1.396928100833E+03
1.400151743506E+03
1.403348225175E+03
1.406544706845E+03
1.409741188514E+03
1.412937670183E+03
1.416042144951E+03
1.419144815378E+03
1.422247485804E+03
1.425350156231E+03
1.428432709028E+03
1.431440913500E+03
1.434449117973E+03
1.437457322445E+03
1.440465526917E+03
1.443434826421E+03
1.446347991853E+03
1.449261157285E+03
1.452174322717E+03
1.455087488149E+03
1.457945769325E+03
1.460763432137E+03
1.463581094950E+03
1.466398757762E+03
1.469216420575E+03
1.471965674694E+03
1.474687511620E+03
1.477409348545E+03
1.480131185471E+03
1.482853022397E+03
1.485495002483E+03
1.488120863472E+03
1.490746724462E+03
1.493372585452E+03
1.495998446442E+03
1.498534678184E+03
1.501064620517E+03
1.503594562849E+03
1.506124505181E+03
1.508651924926E+03
1.511086247209E+03
1.513520569493E+03
1.515954891777E+03
1.518389214061E+03
1.520812762949E+03
1.523152037797E+03
1.525491312645E+03
1.527830587492E+03
1.530169862340E+03
1.532490225361E+03
1.534735328793E+03
1.536980432225E+03
1.539225535656E+03
1.541470639088E+03
1.543688379866E+03
1.545840516255E+03
1.547992652643E+03
1.550144789032E+03
1.552296925421E+03
1.554412553464E+03
1.556473274105E+03
1.558533994747E+03
1.560594715388E+03
1.562655436029E+03
1.564669486795E+03
1.566640701038E+03
1.568611915281E+03
1.570583129525E+03
1.572554343768E+03
1.574467469594E+03
1.576351447405E+03
1.578235425216E+03
1.580119403027E+03
1.582003380837E+03
1.583816449232E+03
1.585615814723E+03
1.587415180215E+03
1.589214545707E+03
1.591010389983E+03
1.592728105694E+03
1.594445821406E+03
1.596163537118E+03
1.597881252830E+03
1.599576544057E+03
1.601215886467E+03
1.602855228877E+03
1.604494571287E+03
1.606133913697E+03
1.607730470109E+03
1.609294997262E+03
1.610859524416E+03
1.612424051570E+03
1.613988578723E+03
1.615488833630E+03
1.616982346086E+03
1.618475858542E+03
1.619969370998E+03
1.621443446979E+03
1.622869943677E+03
1.624296440375E+03
1.625722937073E+03
1.627149433771E+03
1.628529978236E+03
1.629893609092E+03
1.631257239949E+03
1.632620870805E+03
1.633970919751E+03
1.635275936701E+03
1.636580953650E+03
1.637885970600E+03
1.639190987550E+03
1.640452780314E+03
1.641703488641E+03
1.642954196968E+03
1.644204905294E+03
1.645434275736E+03
1.646634987265E+03
1.647835698795E+03
1.649036410324E+03
1.650231299134E+03
1.651386288573E+03
1.652541278012E+03
1.653696267451E+03
1.654851256890E+03
1.655968864441E+03
1.657082330102E+03
1.658195795764E+03
1.659309261426E+03
1.660394731094E+03
1.661470760567E+03
1.662546790040E+03
1.663622819513E+03
1.664676341162E+03
1.665718882541E+03
1.666761423919E+03
1.667803965298E+03
1.668826462975E+03
1.669839301741E+03
1.670852140508E+03
1.671864979274E+03
1.672858053489E+03
1.673844794972E+03
1.674831536456E+03
1.675818277939E+03
1.676784131175E+03
1.677748188333E+03
1.678712245491E+03
1.679673068419E+03
1.680617654439E+03
1.681562240459E+03
1.682506826478E+03
1.683443284647E+03
1.684371409810E+03
1.685299534973E+03
1.686227660136E+03
1.687137072075E+03
1.688044500341E+03
1.688951928607E+03
1.689859356874E+03
1.690766785140E+03
1.691674213406E+03
1.692581641673E+03
1.693472150001E+03
1.694362188721E+03
1.695252227441E+03
1.696142266161E+03
1.697032304881E+03
1.697922343601E+03
1.698809069055E+03
1.699690087525E+03
1.700571105996E+03
1.701452124467E+03
1.702333142938E+03
1.703214161409E+03
1.704095019623E+03
1.704974097716E+03
1.705853175809E+03
1.706732253901E+03
1.707611331994E+03
1.708490410087E+03
1.709369940260E+03
1.710253052346E+03
1.711136164432E+03
1.712019276518E+03
1.712902388604E+03
1.713785500689E+03
1.714674882361E+03
1.715572012355E+03
1.716469142350E+03
1.717366272344E+03
1.718263402339E+03
1.719160532334E+03
1.720057662328E+03
1.720954792323E+03
1.721851922318E+03
1.722749052312E+03
1.723646299070E+03
1.724575176802E+03
1.725504054534E+03
1.726432932267E+03
1.727361809999E+03
1.728290687731E+03
1.729219565464E+03
1.730148443196E+03
1.731077320928E+03
1.732006198661E+03
1.732961470759E+03
1.733932399487E+03
1.734903328214E+03
1.735874256942E+03
1.736845185670E+03
1.737816114397E+03
1.738787043125E+03
1.739757971852E+03
1.740740099448E+03
1.741760793792E+03
1.742781488137E+03
1.743802182482E+03
1.744822876827E+03
1.745843571172E+03
1.746864265517E+03
1.747884959862E+03
1.748944856693E+03
1.750021405820E+03
1.751097954947E+03
1.752174504074E+03
1.753251053201E+03
1.754327602327E+03
1.755404151454E+03
1.756539716872E+03
1.757677214351E+03
1.758814711830E+03
1.759952209308E+03
1.761089706787E+03
1.762227204266E+03
1.763462614240E+03
1.764704211223E+03
1.765945808205E+03
1.767187405188E+03
1.768429002171E+03
1.769670599154E+03
1.770912196136E+03
1.772153793119E+03
1.773395390102E+03
1.774636987085E+03
1.775985094887E+03
1.777365294088E+03
1.778745493289E+03
1.780125692489E+03
1.781505891690E+03
1.782886090891E+03
1.784266290092E+03
1.785646489293E+03
1.787100171355E+03
1.788627854262E+03
1.790155537169E+03
1.791683220076E+03
1.793210902983E+03
1.794738585891E+03
1.796266268798E+03
1.797904525904E+03
1.799585360690E+03
1.801266195476E+03
1.802947030262E+03
1.804627865048E+03
1.806327143294E+03
1.808163315040E+03
1.809999486785E+03
1.811835658531E+03
1.813671830276E+03
1.815575424428E+03
1.817565450940E+03
1.819555477451E+03
1.821545503963E+03
1.823607866854E+03
1.825746641377E+03
1.827885415901E+03
1.830040000230E+03
1.832319106501E+03
1.834598212772E+03
1.836903278081E+03
1.839311554369E+03
1.841719830658E+03
1.844204800278E+03
1.846729082509E+03
1.849296389844E+03
1.851922341845E+03
1.854585942091E+03
1.857298879609E+03
1.860086322430E+03
1.862914301158E+03
1.865742279887E+03
1.868621049356E+03
1.871534662976E+03
1.874448514819E+03
1.877409444799E+03
1.880370374778E+03
1.883345738356E+03
1.886325420756E+03
1.889304307351E+03
1.892281367862E+03
1.895238870207E+03
1.898196372551E+03
1.901145465128E+03
1.904055488073E+03
1.906965511017E+03
1.909838171661E+03
1.912700265474E+03
1.915528474318E+03
1.918343732901E+03
1.921123798440E+03
1.923872664703E+03
1.926603935265E+03
1.929320651998E+03
1.932016875236E+03
1.934701592541E+03
1.937380183610E+03
1.940057668345E+03
1.942741642132E+03
1.945442637004E+03
1.948164308128E+03
1.950898872222E+03
)
;
rho
501
(
1.160120478098E+00
1.046013343541E+00
9.834291690805E-01
9.350204566254E-01
8.949324628215E-01
8.610737309079E-01
8.307555458661E-01
8.043426680147E-01
7.805086186562E-01
7.588468392789E-01
7.389883956874E-01
7.206042434669E-01
7.037544433455E-01
6.881573641154E-01
6.733646411265E-01
6.595816882225E-01
6.465098650902E-01
6.342863038077E-01
6.227441166244E-01
6.118240927463E-01
6.014712328918E-01
5.916346139521E-01
5.822672377840E-01
5.733258665151E-01
5.647708476128E-01
5.565659312162E-01
5.486780823798E-01
5.411508071007E-01
5.339408517428E-01
5.269705976386E-01
5.202164349816E-01
5.138020551223E-01
5.075758814099E-01
5.015082554330E-01
4.957424850802E-01
4.901161971438E-01
4.846492595323E-01
4.794185040137E-01
4.742735458829E-01
4.693577017146E-01
4.645428943605E-01
4.598807749802E-01
4.553609520622E-01
4.509389841906E-01
4.466822767923E-01
4.424875813617E-01
4.384651739514E-01
4.344855370730E-01
4.306714345587E-01
4.268952789668E-01
4.232660853146E-01
4.196824424869E-01
4.162171509960E-01
4.128156339030E-01
4.094954291893E-01
4.062662058078E-01
4.030742773902E-01
4.000080449822E-01
3.969418125741E-01
3.940173724442E-01
3.911053325949E-01
3.882725554882E-01
3.855063899265E-01
3.827539314558E-01
3.801257786286E-01
3.774976258015E-01
3.749460753681E-01
3.724485077736E-01
3.699514865621E-01
3.675774888223E-01
3.652034910826E-01
3.628706540423E-01
3.606136017103E-01
3.583565493784E-01
3.562018958992E-01
3.541077767978E-01
3.520136576964E-01
3.499195385950E-01
3.478254194936E-01
3.457313003922E-01
3.438280399856E-01
3.419311530106E-01
3.400342660357E-01
3.381373790607E-01
3.362404920857E-01
3.343462863151E-01
3.325846342515E-01
3.308229821879E-01
3.290613301243E-01
3.273785908862E-01
3.257012670277E-01
3.240239431692E-01
3.224088392747E-01
3.208115967340E-01
3.192143541933E-01
3.176584141409E-01
3.161372489058E-01
3.146160836707E-01
3.131117806151E-01
3.116629172322E-01
3.102140538493E-01
3.087651904664E-01
3.073745924889E-01
3.059944704455E-01
3.046143484020E-01
3.032594533768E-01
3.019447141799E-01
3.006299749830E-01
2.993152357862E-01
2.980532415246E-01
2.968007164387E-01
2.955481913528E-01
2.943094940737E-01
2.931161925483E-01
2.919228910228E-01
2.907295894973E-01
2.895669146777E-01
2.884300134160E-01
2.872931121544E-01
2.861562108927E-01
2.850610438869E-01
2.839778765912E-01
2.828947092955E-01
2.818115419997E-01
2.807762550525E-01
2.797443027935E-01
2.787123505346E-01
2.776812891776E-01
2.766981714154E-01
2.757150536531E-01
2.747319358909E-01
2.737501011497E-01
2.728135673621E-01
2.718770335744E-01
2.709404997868E-01
2.700039659991E-01
2.691102781040E-01
2.682182000018E-01
2.673261218996E-01
2.664340437973E-01
2.655771170496E-01
2.647274813545E-01
2.638778456594E-01
2.630282099642E-01
2.622038001481E-01
2.613947018870E-01
2.605856036260E-01
2.597765053649E-01
2.589808764717E-01
2.582105127248E-01
2.574401489780E-01
2.566697852311E-01
2.558996643423E-01
2.551663284185E-01
2.544329924947E-01
2.536996565709E-01
2.529663206471E-01
2.522542684228E-01
2.515563443451E-01
2.508584202674E-01
2.501604961898E-01
2.494671029017E-01
2.488030601880E-01
2.481390174744E-01
2.474749747608E-01
2.468109320471E-01
2.461665911582E-01
2.455349797684E-01
2.449033683786E-01
2.442717569889E-01
2.436409373415E-01
2.430403827506E-01
2.424398281597E-01
2.418392735688E-01
2.412387189779E-01
2.406498028610E-01
2.400790011826E-01
2.395081995043E-01
2.389373978260E-01
2.383665961476E-01
2.378159902983E-01
2.372737033660E-01
2.367314164336E-01
2.361891295013E-01
2.356468425689E-01
2.351313671824E-01
2.346164175954E-01
2.341014680084E-01
2.335865184214E-01
2.330771517572E-01
2.325884177911E-01
2.320996838249E-01
2.316109498587E-01
2.311222158925E-01
2.306437749861E-01
2.301801854309E-01
2.297165958758E-01
2.292530063206E-01
2.287894167654E-01
2.283396877881E-01
2.279002166519E-01
2.274607455158E-01
2.270212743796E-01
2.265818032435E-01
2.261588459311E-01
2.257425071153E-01
2.253261682996E-01
2.249098294838E-01
2.244934906681E-01
2.240956073922E-01
2.237014493655E-01
2.233072913389E-01
2.229131333122E-01
2.225189752856E-01
2.221446819300E-01
2.217717825064E-01
2.213988830827E-01
2.210259836591E-01
2.206536213794E-01
2.203010826881E-01
2.199485439967E-01
2.195960053054E-01
2.192434666140E-01
2.188931362189E-01
2.185600800482E-01
2.182270238775E-01
2.178939677067E-01
2.175609115360E-01
2.172315946413E-01
2.169171581906E-01
2.166027217399E-01
2.162882852892E-01
2.159738488385E-01
2.156646421945E-01
2.153679744757E-01
2.150713067569E-01
2.147746390381E-01
2.144779713193E-01
2.141880635144E-01
2.139083224075E-01
2.136285813005E-01
2.133488401936E-01
2.130690990867E-01
2.127977481701E-01
2.125340982935E-01
2.122704484169E-01
2.120067985403E-01
2.117431486637E-01
2.114896608717E-01
2.112412722821E-01
2.109928836924E-01
2.107444951028E-01
2.104961065132E-01
2.102598163278E-01
2.100258641007E-01
2.097919118736E-01
2.095579596464E-01
2.093245946577E-01
2.091042592841E-01
2.088839239104E-01
2.086635885367E-01
2.084432531630E-01
2.082265813031E-01
2.080190498660E-01
2.078115184290E-01
2.076039869919E-01
2.073964555548E-01
2.071957864797E-01
2.070002545141E-01
2.068047225485E-01
2.066091905829E-01
2.064136586173E-01
2.062282685675E-01
2.060439424506E-01
2.058596163336E-01
2.056752902167E-01
2.054939878924E-01
2.053200876243E-01
2.051461873563E-01
2.049722870882E-01
2.047983868201E-01
2.046315494288E-01
2.044673116659E-01
2.043030739031E-01
2.041388361402E-01
2.039766650500E-01
2.038213461917E-01
2.036660273334E-01
2.035107084751E-01
2.033553896168E-01
2.032065955975E-01
2.030594748121E-01
2.029123540268E-01
2.027652332414E-01
2.026213145544E-01
2.024816966055E-01
2.023420786567E-01
2.022024607079E-01
2.020637132842E-01
2.019309310136E-01
2.017981487430E-01
2.016653664724E-01
2.015325842018E-01
2.014053823551E-01
2.012787988158E-01
2.011522152764E-01
2.010256317371E-01
2.009032312959E-01
2.007822413876E-01
2.006612514792E-01
2.005402615708E-01
2.004226467257E-01
2.003066783796E-01
2.001907100335E-01
2.000747416874E-01
1.999617986738E-01
1.998503135454E-01
1.997388284170E-01
1.996273432886E-01
1.995188714827E-01
1.994113651712E-01
1.993038588597E-01
1.991963525482E-01
1.990920766302E-01
1.989880784779E-01
1.988840803256E-01
1.987805922193E-01
1.986796647131E-01
1.985787372070E-01
1.984778097008E-01
1.983781982695E-01
1.982799361321E-01
1.981816739948E-01
1.980834118574E-01
1.979882693070E-01
1.978934574447E-01
1.977986455823E-01
1.977038337199E-01
1.976090218576E-01
1.975142099952E-01
1.974193981329E-01
1.973277693785E-01
1.972362289704E-01
1.971446885623E-01
1.970531481542E-01
1.969616077461E-01
1.968700673380E-01
1.967793288192E-01
1.966899715261E-01
1.966006142330E-01
1.965112569398E-01
1.964218996467E-01
1.963325423535E-01
1.962432902971E-01
1.961552072054E-01
1.960671241138E-01
1.959790410221E-01
1.958909579304E-01
1.958028748388E-01
1.957148496195E-01
1.956272829339E-01
1.955397162483E-01
1.954521495627E-01
1.953645828771E-01
1.952770161915E-01
1.951893519588E-01
1.951015671718E-01
1.950137823849E-01
1.949259975979E-01
1.948382128109E-01
1.947504280239E-01
1.946626432369E-01
1.945748584499E-01
1.944870736629E-01
1.943992888759E-01
1.943114969751E-01
1.942217779292E-01
1.941320588833E-01
1.940423398374E-01
1.939526207915E-01
1.938629017456E-01
1.937731826997E-01
1.936834636538E-01
1.935937446079E-01
1.935040255620E-01
1.934123107974E-01
1.933194122109E-01
1.932265136244E-01
1.931336150380E-01
1.930407164515E-01
1.929478178650E-01
1.928549192786E-01
1.927620206921E-01
1.926682035447E-01
1.925712230496E-01
1.924742425545E-01
1.923772620595E-01
1.922802815644E-01
1.921833010694E-01
1.920863205743E-01
1.919893400792E-01
1.918890137129E-01
1.917872660992E-01
1.916855184854E-01
1.915837708717E-01
1.914820232579E-01
1.913802756441E-01
1.912785280304E-01
1.911716320998E-01
1.910645676250E-01
1.909575031501E-01
1.908504386752E-01
1.907433742004E-01
1.906363097255E-01
1.905205219659E-01
1.904041829892E-01
1.902878440126E-01
1.901715050359E-01
1.900551660593E-01
1.899388270826E-01
1.898224881060E-01
1.897061491293E-01
1.895898101527E-01
1.894734711760E-01
1.893477098101E-01
1.892191095058E-01
1.890905092015E-01
1.889619088972E-01
1.888333085929E-01
1.887047082886E-01
1.885761079843E-01
1.884475076800E-01
1.883124087268E-01
1.881707653155E-01
1.880291219041E-01
1.878874784927E-01
1.877458350814E-01
1.876041916700E-01
1.874625482586E-01
1.873111737243E-01
1.871560521258E-01
1.870009305273E-01
1.868458089287E-01
1.866906873302E-01
1.865339553309E-01
1.863652704015E-01
1.861965854721E-01
1.860279005427E-01
1.858592156133E-01
1.856847033179E-01
1.855027206128E-01
1.853207379077E-01
1.851387552027E-01
1.849505971196E-01
1.847559157529E-01
1.845612343862E-01
1.843652229927E-01
1.841587359788E-01
1.839522489648E-01
1.837436159066E-01
1.835264503543E-01
1.833092848020E-01
1.830859109622E-01
1.828593547859E-01
1.826294045366E-01
1.823948280512E-01
1.821573762988E-01
1.819161565665E-01
1.816693794736E-01
1.814195788017E-01
1.811697781299E-01
1.809167979707E-01
1.806616365764E-01
1.804064648446E-01
1.801492501590E-01
1.798920354734E-01
1.796350766013E-01
1.793781942737E-01
1.791228659624E-01
1.788682298811E-01
1.786175311954E-01
1.783668325096E-01
1.781173041646E-01
1.778732129246E-01
1.776291216846E-01
1.773898321617E-01
1.771519006636E-01
1.769181806740E-01
1.766860681150E-01
1.764583043156E-01
1.762343916257E-01
1.760126508764E-01
1.757927999115E-01
1.755756099842E-01
1.753602751927E-01
1.751462023373E-01
1.749331047442E-01
1.747203255430E-01
1.745071096641E-01
1.742934886607E-01
1.740802391516E-01
)
;
viscosity
501
(
1.782879421596E-05
1.921513280426E-05
2.009158098478E-05
2.082881841016E-05
2.148437524261E-05
2.207798264761E-05
2.263502911247E-05
2.315063515403E-05
2.363811584960E-05
2.410138211754E-05
2.454409115520E-05
2.496964400996E-05
2.537690349118E-05
2.576875599205E-05
2.615052318209E-05
2.651944495903E-05
2.687896488527E-05
2.722704528423E-05
2.756568028195E-05
2.789550183674E-05
2.821711324109E-05
2.853108979339E-05
2.883797952243E-05
2.913830395273E-05
2.943255891178E-05
2.972121536910E-05
3.000472030038E-05
3.028224927214E-05
3.055439021194E-05
3.082239061183E-05
3.108662506646E-05
3.134479581041E-05
3.159952024518E-05
3.185133499661E-05
3.209747954716E-05
3.234093493541E-05
3.258131811645E-05
3.281702411170E-05
3.305101005937E-05
3.328033527419E-05
3.350754859418E-05
3.373157039487E-05
3.395253521875E-05
3.417139780761E-05
3.438661052048E-05
3.460045366212E-05
3.481038414707E-05
3.501934331429E-05
3.522443613813E-05
3.542864264551E-05
3.562931819286E-05
3.582889931983E-05
3.602555487947E-05
3.622063397785E-05
3.641364479245E-05
3.660434138116E-05
3.679406167059E-05
3.698049151784E-05
3.716692136508E-05
3.734953067923E-05
3.753180587305E-05
3.771188251913E-05
3.789011152965E-05
3.806794910223E-05
3.824223683732E-05
3.841652457242E-05
3.858855980338E-05
3.875900766141E-05
3.892943897389E-05
3.909614489581E-05
3.926285081772E-05
3.942827298280E-05
3.959133150636E-05
3.975439002993E-05
3.991414829002E-05
4.007195555760E-05
4.022976282517E-05
4.038757009275E-05
4.054537736032E-05
4.070318462790E-05
4.085454243668E-05
4.100568487573E-05
4.115682731479E-05
4.130796975385E-05
4.145911219290E-05
4.161015875819E-05
4.175646550399E-05
4.190277224979E-05
4.204907899559E-05
4.219244268945E-05
4.233560441686E-05
4.247876614426E-05
4.261952890241E-05
4.275960299352E-05
4.289967708463E-05
4.303810391830E-05
4.317514383609E-05
4.331218375388E-05
4.344852762277E-05
4.358258301386E-05
4.371663840495E-05
4.385069379604E-05
4.398225843363E-05
4.411337524170E-05
4.424449204976E-05
4.437449139486E-05
4.450271198634E-05
4.463093257781E-05
4.475915316929E-05
4.488495135685E-05
4.501031465588E-05
4.513567795490E-05
4.526038243786E-05
4.538292407228E-05
4.550546570670E-05
4.562800734112E-05
4.574903438274E-05
4.586878683591E-05
4.598853928909E-05
4.610829174226E-05
4.622590079624E-05
4.634289356587E-05
4.645988633551E-05
4.657687910514E-05
4.669131681372E-05
4.680557657179E-05
4.691983632986E-05
4.703404666680E-05
4.714559742135E-05
4.725714817590E-05
4.736869893044E-05
4.748017566557E-05
4.758903892022E-05
4.769790217486E-05
4.780676542950E-05
4.791562868415E-05
4.802192021787E-05
4.812811512768E-05
4.823431003749E-05
4.834050494730E-05
4.844450394483E-05
4.854804746881E-05
4.865159099280E-05
4.875513451679E-05
4.885703740028E-05
4.895794445098E-05
4.905885150168E-05
4.915975855238E-05
4.925975333289E-05
4.935803692400E-05
4.945632051510E-05
4.955460410621E-05
4.965287056447E-05
4.974854196427E-05
4.984421336406E-05
4.993988476385E-05
5.003555616365E-05
5.012966336925E-05
5.022273226076E-05
5.031580115227E-05
5.040887004378E-05
5.050159202160E-05
5.059206668337E-05
5.068254134514E-05
5.077301600691E-05
5.086349066868E-05
5.095239365313E-05
5.104028116486E-05
5.112816867659E-05
5.121605618833E-05
5.130387790106E-05
5.138918438834E-05
5.147449087562E-05
5.155979736290E-05
5.164510385018E-05
5.172940285390E-05
5.181213378270E-05
5.189486471151E-05
5.197759564031E-05
5.206032656912E-05
5.214123698839E-05
5.222139751680E-05
5.230155804521E-05
5.238171857362E-05
5.246187910203E-05
5.253952384099E-05
5.261711924295E-05
5.269471464491E-05
5.277231004688E-05
5.284936042839E-05
5.292439658858E-05
5.299943274877E-05
5.307446890895E-05
5.314950506914E-05
5.322349647850E-05
5.329598046811E-05
5.336846445772E-05
5.344094844733E-05
5.351343243695E-05
5.358445484028E-05
5.365439556288E-05
5.372433628548E-05
5.379427700809E-05
5.386421773069E-05
5.393235102606E-05
5.399975993129E-05
5.406716883652E-05
5.413457774175E-05
5.420198664698E-05
5.426730123105E-05
5.433219307657E-05
5.439708492209E-05
5.446197676761E-05
5.452686861314E-05
5.458942606207E-05
5.465181970310E-05
5.471421334414E-05
5.477660698517E-05
5.483893534643E-05
5.489885452235E-05
5.495877369828E-05
5.501869287420E-05
5.507861205013E-05
5.513825408156E-05
5.519572817180E-05
5.525320226205E-05
5.531067635230E-05
5.536815044255E-05
5.542514067163E-05
5.548020537578E-05
5.553527007993E-05
5.559033478409E-05
5.564539948824E-05
5.569976758409E-05
5.575246549976E-05
5.580516341543E-05
5.585786133111E-05
5.591055924678E-05
5.596233188664E-05
5.601271294079E-05
5.606309399494E-05
5.611347504910E-05
5.616385610325E-05
5.621305910412E-05
5.626118081421E-05
5.630930252430E-05
5.635742423439E-05
5.640554594448E-05
5.645220661456E-05
5.649813415369E-05
5.654406169281E-05
5.658998923193E-05
5.663591677106E-05
5.668006639969E-05
5.672387245570E-05
5.676767851171E-05
5.681148456772E-05
5.685520257659E-05
5.689696700002E-05
5.693873142346E-05
5.698049584690E-05
5.702226027034E-05
5.706346527239E-05
5.710327452481E-05
5.714308377723E-05
5.718289302964E-05
5.722270228206E-05
5.726144620327E-05
5.729939262603E-05
5.733733904879E-05
5.737528547154E-05
5.741323189430E-05
5.744958044892E-05
5.748576137993E-05
5.752194231094E-05
5.755812324195E-05
5.759382152040E-05
5.762833829541E-05
5.766285507041E-05
5.769737184541E-05
5.773188862041E-05
5.776526517887E-05
5.779822205856E-05
5.783117893824E-05
5.786413581793E-05
5.789675582156E-05
5.792825888351E-05
5.795976194545E-05
5.799126500740E-05
5.802276806935E-05
5.805319903584E-05
5.808335507347E-05
5.811351111111E-05
5.814366714874E-05
5.817329372831E-05
5.820220919277E-05
5.823112465724E-05
5.826004012170E-05
5.828881098631E-05
5.831659100057E-05
5.834437101483E-05
5.837215102908E-05
5.839993104334E-05
5.842678151025E-05
5.845352898391E-05
5.848027645757E-05
5.850702393123E-05
5.853307396442E-05
5.855888882200E-05
5.858470367959E-05
5.861051853717E-05
5.863577129180E-05
5.866074982877E-05
5.868572836573E-05
5.871070690270E-05
5.873518326533E-05
5.875941763390E-05
5.878365200246E-05
5.880788637103E-05
5.883162351060E-05
5.885520133373E-05
5.887877915687E-05
5.890235698000E-05
5.892540651289E-05
5.894841062068E-05
5.897141472847E-05
5.899433647681E-05
5.901684475338E-05
5.903935302995E-05
5.906186130652E-05
5.908416074450E-05
5.910624607257E-05
5.912833140065E-05
5.915041672872E-05
5.917201594809E-05
5.919356363809E-05
5.921511132809E-05
5.923665901808E-05
5.925820670808E-05
5.927975439808E-05
5.930130208808E-05
5.932239209282E-05
5.934346939463E-05
5.936454669644E-05
5.938562399825E-05
5.940670130006E-05
5.942777860186E-05
5.944875729005E-05
5.946956611982E-05
5.949037494959E-05
5.951118377935E-05
5.953199260912E-05
5.955280143889E-05
5.957360217573E-05
5.959431301670E-05
5.961502385767E-05
5.963573469864E-05
5.965644553961E-05
5.967715638058E-05
5.969787232625E-05
5.971862871734E-05
5.973938510843E-05
5.976014149952E-05
5.978089789061E-05
5.980165428170E-05
5.982252614302E-05
5.984354070926E-05
5.986455527549E-05
5.988556984173E-05
5.990658440796E-05
5.992759897420E-05
5.994861354044E-05
5.996962810667E-05
5.999064267291E-05
6.001165723914E-05
6.003267422430E-05
6.005434649204E-05
6.007601875979E-05
6.009769102754E-05
6.011936329528E-05
6.014103556303E-05
6.016270783077E-05
6.018438009852E-05
6.020605236627E-05
6.022772463401E-05
6.024996288492E-05
6.027253686613E-05
6.029511084734E-05
6.031768482854E-05
6.034025880975E-05
6.036283279096E-05
6.038540677216E-05
6.040798075337E-05
6.043079832577E-05
6.045445477947E-05
6.047811123317E-05
6.050176768687E-05
6.052542414058E-05
6.054908059428E-05
6.057273704798E-05
6.059639350168E-05
6.062090861926E-05
6.064578847707E-05
6.067066833488E-05
6.069554819269E-05
6.072042805050E-05
6.074530790831E-05
6.077018776612E-05
6.079636497185E-05
6.082258464984E-05
6.084880432783E-05
6.087502400582E-05
6.090124368381E-05
6.092746336180E-05
6.095584250250E-05
6.098435809784E-05
6.101287369317E-05
6.104138928851E-05
6.106990488385E-05
6.109842047919E-05
6.112693607452E-05
6.115545166986E-05
6.118396726520E-05
6.121248286053E-05
6.124334229656E-05
6.127490792493E-05
6.130647355331E-05
6.133803918168E-05
6.136960481005E-05
6.140117043843E-05
6.143273606680E-05
6.146430169518E-05
6.149748299410E-05
6.153229135250E-05
6.156709971090E-05
6.160190806930E-05
6.163671642770E-05
6.167152478610E-05
6.170633314450E-05
6.174356861184E-05
6.178173866128E-05
6.181990871071E-05
6.185807876015E-05
6.189624880958E-05
6.193482278172E-05
6.197639480252E-05
6.201796682332E-05
6.205953884412E-05
6.210111086492E-05
6.214415543382E-05
6.218908774023E-05
6.223402004663E-05
6.227895235304E-05
6.232545943794E-05
6.237363002045E-05